#define LIBRARY_Name="Transformer Configuration"
#define LIBRARY_Version="0.0"
#define LIBRARY_Author="dchassin"
#define LIBRARY_Description="Transformer library for USA"
#define LIBRARY_Module="powerflow"

module powerflow;
object transformer_configuration
{
    name "SINGLE_PHASE_CENTER_TAPPED-POLETOP-7200V-120V-450kVA";
    connect_type "SINGLE_PHASE_CENTER_TAPPED";
    install_type "POLETOP";
    coolant_type "UNKNOWN";
    cooling_type "UNKNOWN";
    primary_voltage "7200 V";
    secondary_voltage "120 V";
    power_rating "450 kVA";
    powerA_rating "0 kVA";
    powerB_rating "450 kVA";
    powerC_rating "0 kVA";
    powerN_rating "0 kVA";
    resistance "0.00033 pu*Ohm";
    reactance "0.00022 pu*Ohm";
    impedance "0.00033+0.00022j pu*Ohm";
    resistance1 "0 pu*Ohm";
    reactance1 "0 pu*Ohm";
    impedance1 "0+0j pu*Ohm";
    resistance2 "0 pu*Ohm";
    reactance2 "0 pu*Ohm";
    impedance2 "0+0j pu*Ohm";
    shunt_resistance "1e+09 pu*Ohm";
    shunt_reactance "1e+09 pu*Ohm";
    shunt_impedance "1e+09+1e+09j pu*Ohm";
    core_coil_weight "0 lb";
    tank_fittings_weight "0 lb";
    oil_volume "0 gal";
    rated_winding_time_constant "0 h";
    rated_winding_hot_spot_rise "0 degC";
    rated_top_oil_rise "0 degC";
    no_load_loss "0 pu";
    full_load_loss "0 pu";
    reactance_resistance_ratio "4.5";
    installed_insulation_life "0 h";
    magnetization_location "NONE";
    inrush_saturation_enabled "FALSE";
    L_A "0.2 pu";
    phi_K "1.17 pu";
    phi_M "1 pu";
    I_M "0.01 pu";
    T_D "0.5";
}
object transformer_configuration
{
    name "WYE_WYE-PADMOUNT-12470V-480V-50kVA";
    connect_type "WYE_WYE";
    install_type "PADMOUNT";
    coolant_type "UNKNOWN";
    cooling_type "UNKNOWN";
    primary_voltage "12470 V";
    secondary_voltage "480 V";
    power_rating "50 kVA";
    powerA_rating "0 kVA";
    powerB_rating "0 kVA";
    powerC_rating "50 kVA";
    powerN_rating "0 kVA";
    resistance "0.002 pu*Ohm";
    reactance "0.01 pu*Ohm";
    impedance "0.002+0.01j pu*Ohm";
    resistance1 "0 pu*Ohm";
    reactance1 "0 pu*Ohm";
    impedance1 "0+0j pu*Ohm";
    resistance2 "0 pu*Ohm";
    reactance2 "0 pu*Ohm";
    impedance2 "0+0j pu*Ohm";
    shunt_resistance "1e+09 pu*Ohm";
    shunt_reactance "1e+09 pu*Ohm";
    shunt_impedance "1e+09+1e+09j pu*Ohm";
    core_coil_weight "0 lb";
    tank_fittings_weight "0 lb";
    oil_volume "0 gal";
    rated_winding_time_constant "0 h";
    rated_winding_hot_spot_rise "0 degC";
    rated_top_oil_rise "0 degC";
    no_load_loss "0 pu";
    full_load_loss "0 pu";
    reactance_resistance_ratio "4.5";
    installed_insulation_life "0 h";
    magnetization_location "NONE";
    inrush_saturation_enabled "FALSE";
    L_A "0.2 pu";
    phi_K "1.17 pu";
    phi_M "1 pu";
    I_M "0.01 pu";
    T_D "0.5";
}
object transformer_configuration
{
    name "WYE_WYE-PADMOUNT-12470V-480V-45kVA";
    connect_type "WYE_WYE";
    install_type "PADMOUNT";
    coolant_type "UNKNOWN";
    cooling_type "UNKNOWN";
    primary_voltage "12470 V";
    secondary_voltage "480 V";
    power_rating "45 kVA";
    powerA_rating "15 kVA";
    powerB_rating "15 kVA";
    powerC_rating "15 kVA";
    powerN_rating "0 kVA";
    resistance "0.00222 pu*Ohm";
    reactance "0.01111 pu*Ohm";
    impedance "0.00222+0.01111j pu*Ohm";
    resistance1 "0 pu*Ohm";
    reactance1 "0 pu*Ohm";
    impedance1 "0+0j pu*Ohm";
    resistance2 "0 pu*Ohm";
    reactance2 "0 pu*Ohm";
    impedance2 "0+0j pu*Ohm";
    shunt_resistance "1e+09 pu*Ohm";
    shunt_reactance "1e+09 pu*Ohm";
    shunt_impedance "1e+09+1e+09j pu*Ohm";
    core_coil_weight "0 lb";
    tank_fittings_weight "0 lb";
    oil_volume "0 gal";
    rated_winding_time_constant "0 h";
    rated_winding_hot_spot_rise "0 degC";
    rated_top_oil_rise "0 degC";
    no_load_loss "0 pu";
    full_load_loss "0 pu";
    reactance_resistance_ratio "4.5";
    installed_insulation_life "0 h";
    magnetization_location "NONE";
    inrush_saturation_enabled "FALSE";
    L_A "0.2 pu";
    phi_K "1.17 pu";
    phi_M "1 pu";
    I_M "0.01 pu";
    T_D "0.5";
}
object transformer_configuration
{
    name "WYE_WYE-POLETOP-12470V-480V-25kVA";
    connect_type "WYE_WYE";
    install_type "POLETOP";
    coolant_type "UNKNOWN";
    cooling_type "UNKNOWN";
    primary_voltage "12470 V";
    secondary_voltage "480 V";
    power_rating "25 kVA";
    powerA_rating "0 kVA";
    powerB_rating "0 kVA";
    powerC_rating "25 kVA";
    powerN_rating "0 kVA";
    resistance "0.004 pu*Ohm";
    reactance "0.02 pu*Ohm";
    impedance "0.004+0.02j pu*Ohm";
    resistance1 "0 pu*Ohm";
    reactance1 "0 pu*Ohm";
    impedance1 "0+0j pu*Ohm";
    resistance2 "0 pu*Ohm";
    reactance2 "0 pu*Ohm";
    impedance2 "0+0j pu*Ohm";
    shunt_resistance "1e+09 pu*Ohm";
    shunt_reactance "1e+09 pu*Ohm";
    shunt_impedance "1e+09+1e+09j pu*Ohm";
    core_coil_weight "0 lb";
    tank_fittings_weight "0 lb";
    oil_volume "0 gal";
    rated_winding_time_constant "0 h";
    rated_winding_hot_spot_rise "0 degC";
    rated_top_oil_rise "0 degC";
    no_load_loss "0 pu";
    full_load_loss "0 pu";
    reactance_resistance_ratio "4.5";
    installed_insulation_life "0 h";
    magnetization_location "NONE";
    inrush_saturation_enabled "FALSE";
    L_A "0.2 pu";
    phi_K "1.17 pu";
    phi_M "1 pu";
    I_M "0.01 pu";
    T_D "0.5";
}
object transformer_configuration
{
    name "WYE_WYE-POLETOP-12470V-480V-50kVA";
    connect_type "WYE_WYE";
    install_type "POLETOP";
    coolant_type "UNKNOWN";
    cooling_type "UNKNOWN";
    primary_voltage "12470 V";
    secondary_voltage "480 V";
    power_rating "50 kVA";
    powerA_rating "0 kVA";
    powerB_rating "0 kVA";
    powerC_rating "50 kVA";
    powerN_rating "0 kVA";
    resistance "0.002 pu*Ohm";
    reactance "0.01 pu*Ohm";
    impedance "0.002+0.01j pu*Ohm";
    resistance1 "0 pu*Ohm";
    reactance1 "0 pu*Ohm";
    impedance1 "0+0j pu*Ohm";
    resistance2 "0 pu*Ohm";
    reactance2 "0 pu*Ohm";
    impedance2 "0+0j pu*Ohm";
    shunt_resistance "1e+09 pu*Ohm";
    shunt_reactance "1e+09 pu*Ohm";
    shunt_impedance "1e+09+1e+09j pu*Ohm";
    core_coil_weight "0 lb";
    tank_fittings_weight "0 lb";
    oil_volume "0 gal";
    rated_winding_time_constant "0 h";
    rated_winding_hot_spot_rise "0 degC";
    rated_top_oil_rise "0 degC";
    no_load_loss "0 pu";
    full_load_loss "0 pu";
    reactance_resistance_ratio "4.5";
    installed_insulation_life "0 h";
    magnetization_location "NONE";
    inrush_saturation_enabled "FALSE";
    L_A "0.2 pu";
    phi_K "1.17 pu";
    phi_M "1 pu";
    I_M "0.01 pu";
    T_D "0.5";
}
object transformer_configuration
{
    name "WYE_WYE-POLETOP-12470V-480V-75kVA";
    connect_type "WYE_WYE";
    install_type "POLETOP";
    coolant_type "UNKNOWN";
    cooling_type "UNKNOWN";
    primary_voltage "12470 V";
    secondary_voltage "480 V";
    power_rating "75 kVA";
    powerA_rating "0 kVA";
    powerB_rating "0 kVA";
    powerC_rating "75 kVA";
    powerN_rating "0 kVA";
    resistance "0.00133 pu*Ohm";
    reactance "0.00667 pu*Ohm";
    impedance "0.00133+0.00667j pu*Ohm";
    resistance1 "0 pu*Ohm";
    reactance1 "0 pu*Ohm";
    impedance1 "0+0j pu*Ohm";
    resistance2 "0 pu*Ohm";
    reactance2 "0 pu*Ohm";
    impedance2 "0+0j pu*Ohm";
    shunt_resistance "1e+09 pu*Ohm";
    shunt_reactance "1e+09 pu*Ohm";
    shunt_impedance "1e+09+1e+09j pu*Ohm";
    core_coil_weight "0 lb";
    tank_fittings_weight "0 lb";
    oil_volume "0 gal";
    rated_winding_time_constant "0 h";
    rated_winding_hot_spot_rise "0 degC";
    rated_top_oil_rise "0 degC";
    no_load_loss "0 pu";
    full_load_loss "0 pu";
    reactance_resistance_ratio "4.5";
    installed_insulation_life "0 h";
    magnetization_location "NONE";
    inrush_saturation_enabled "FALSE";
    L_A "0.2 pu";
    phi_K "1.17 pu";
    phi_M "1 pu";
    I_M "0.01 pu";
    T_D "0.5";
}
object transformer_configuration
{
    name "WYE_WYE-POLETOP-12470V-480V-37.5kVA";
    connect_type "WYE_WYE";
    install_type "POLETOP";
    coolant_type "UNKNOWN";
    cooling_type "UNKNOWN";
    primary_voltage "12470 V";
    secondary_voltage "480 V";
    power_rating "37.5 kVA";
    powerA_rating "37.5 kVA";
    powerB_rating "0 kVA";
    powerC_rating "0 kVA";
    powerN_rating "0 kVA";
    resistance "0.00267 pu*Ohm";
    reactance "0.01333 pu*Ohm";
    impedance "0.00267+0.01333j pu*Ohm";
    resistance1 "0 pu*Ohm";
    reactance1 "0 pu*Ohm";
    impedance1 "0+0j pu*Ohm";
    resistance2 "0 pu*Ohm";
    reactance2 "0 pu*Ohm";
    impedance2 "0+0j pu*Ohm";
    shunt_resistance "1e+09 pu*Ohm";
    shunt_reactance "1e+09 pu*Ohm";
    shunt_impedance "1e+09+1e+09j pu*Ohm";
    core_coil_weight "0 lb";
    tank_fittings_weight "0 lb";
    oil_volume "0 gal";
    rated_winding_time_constant "0 h";
    rated_winding_hot_spot_rise "0 degC";
    rated_top_oil_rise "0 degC";
    no_load_loss "0 pu";
    full_load_loss "0 pu";
    reactance_resistance_ratio "4.5";
    installed_insulation_life "0 h";
    magnetization_location "NONE";
    inrush_saturation_enabled "FALSE";
    L_A "0.2 pu";
    phi_K "1.17 pu";
    phi_M "1 pu";
    I_M "0.01 pu";
    T_D "0.5";
}
object transformer_configuration
{
    name "WYE_WYE-POLETOP-12470V-480V-100kVA";
    connect_type "WYE_WYE";
    install_type "POLETOP";
    coolant_type "UNKNOWN";
    cooling_type "UNKNOWN";
    primary_voltage "12470 V";
    secondary_voltage "480 V";
    power_rating "100 kVA";
    powerA_rating "100 kVA";
    powerB_rating "0 kVA";
    powerC_rating "0 kVA";
    powerN_rating "0 kVA";
    resistance "0.001 pu*Ohm";
    reactance "0.005 pu*Ohm";
    impedance "0.001+0.005j pu*Ohm";
    resistance1 "0 pu*Ohm";
    reactance1 "0 pu*Ohm";
    impedance1 "0+0j pu*Ohm";
    resistance2 "0 pu*Ohm";
    reactance2 "0 pu*Ohm";
    impedance2 "0+0j pu*Ohm";
    shunt_resistance "1e+09 pu*Ohm";
    shunt_reactance "1e+09 pu*Ohm";
    shunt_impedance "1e+09+1e+09j pu*Ohm";
    core_coil_weight "0 lb";
    tank_fittings_weight "0 lb";
    oil_volume "0 gal";
    rated_winding_time_constant "0 h";
    rated_winding_hot_spot_rise "0 degC";
    rated_top_oil_rise "0 degC";
    no_load_loss "0 pu";
    full_load_loss "0 pu";
    reactance_resistance_ratio "4.5";
    installed_insulation_life "0 h";
    magnetization_location "NONE";
    inrush_saturation_enabled "FALSE";
    L_A "0.2 pu";
    phi_K "1.17 pu";
    phi_M "1 pu";
    I_M "0.01 pu";
    T_D "0.5";
}
object transformer_configuration
{
    name "WYE_WYE-POLETOP-12470V-480V-175kVA";
    connect_type "WYE_WYE";
    install_type "POLETOP";
    coolant_type "UNKNOWN";
    cooling_type "UNKNOWN";
    primary_voltage "12470 V";
    secondary_voltage "480 V";
    power_rating "175 kVA";
    powerA_rating "0 kVA";
    powerB_rating "175 kVA";
    powerC_rating "0 kVA";
    powerN_rating "0 kVA";
    resistance "0.00057 pu*Ohm";
    reactance "0.00286 pu*Ohm";
    impedance "0.00057+0.00286j pu*Ohm";
    resistance1 "0 pu*Ohm";
    reactance1 "0 pu*Ohm";
    impedance1 "0+0j pu*Ohm";
    resistance2 "0 pu*Ohm";
    reactance2 "0 pu*Ohm";
    impedance2 "0+0j pu*Ohm";
    shunt_resistance "1e+09 pu*Ohm";
    shunt_reactance "1e+09 pu*Ohm";
    shunt_impedance "1e+09+1e+09j pu*Ohm";
    core_coil_weight "0 lb";
    tank_fittings_weight "0 lb";
    oil_volume "0 gal";
    rated_winding_time_constant "0 h";
    rated_winding_hot_spot_rise "0 degC";
    rated_top_oil_rise "0 degC";
    no_load_loss "0 pu";
    full_load_loss "0 pu";
    reactance_resistance_ratio "4.5";
    installed_insulation_life "0 h";
    magnetization_location "NONE";
    inrush_saturation_enabled "FALSE";
    L_A "0.2 pu";
    phi_K "1.17 pu";
    phi_M "1 pu";
    I_M "0.01 pu";
    T_D "0.5";
}
object transformer_configuration
{
    name "WYE_WYE-POLETOP-12470V-480V-150kVA";
    connect_type "WYE_WYE";
    install_type "POLETOP";
    coolant_type "UNKNOWN";
    cooling_type "UNKNOWN";
    primary_voltage "12470 V";
    secondary_voltage "480 V";
    power_rating "150 kVA";
    powerA_rating "50 kVA";
    powerB_rating "50 kVA";
    powerC_rating "50 kVA";
    powerN_rating "0 kVA";
    resistance "0.00067 pu*Ohm";
    reactance "0.00333 pu*Ohm";
    impedance "0.00067+0.00333j pu*Ohm";
    resistance1 "0 pu*Ohm";
    reactance1 "0 pu*Ohm";
    impedance1 "0+0j pu*Ohm";
    resistance2 "0 pu*Ohm";
    reactance2 "0 pu*Ohm";
    impedance2 "0+0j pu*Ohm";
    shunt_resistance "1e+09 pu*Ohm";
    shunt_reactance "1e+09 pu*Ohm";
    shunt_impedance "1e+09+1e+09j pu*Ohm";
    core_coil_weight "0 lb";
    tank_fittings_weight "0 lb";
    oil_volume "0 gal";
    rated_winding_time_constant "0 h";
    rated_winding_hot_spot_rise "0 degC";
    rated_top_oil_rise "0 degC";
    no_load_loss "0 pu";
    full_load_loss "0 pu";
    reactance_resistance_ratio "4.5";
    installed_insulation_life "0 h";
    magnetization_location "NONE";
    inrush_saturation_enabled "FALSE";
    L_A "0.2 pu";
    phi_K "1.17 pu";
    phi_M "1 pu";
    I_M "0.01 pu";
    T_D "0.5";
}
object transformer_configuration
{
    name "WYE_WYE-POLETOP-12470V-480V-112.5kVA";
    connect_type "WYE_WYE";
    install_type "POLETOP";
    coolant_type "UNKNOWN";
    cooling_type "UNKNOWN";
    primary_voltage "12470 V";
    secondary_voltage "480 V";
    power_rating "112.5 kVA";
    powerA_rating "37.5 kVA";
    powerB_rating "37.5 kVA";
    powerC_rating "37.5 kVA";
    powerN_rating "0 kVA";
    resistance "0.00089 pu*Ohm";
    reactance "0.00444 pu*Ohm";
    impedance "0.00089+0.00444j pu*Ohm";
    resistance1 "0 pu*Ohm";
    reactance1 "0 pu*Ohm";
    impedance1 "0+0j pu*Ohm";
    resistance2 "0 pu*Ohm";
    reactance2 "0 pu*Ohm";
    impedance2 "0+0j pu*Ohm";
    shunt_resistance "1e+09 pu*Ohm";
    shunt_reactance "1e+09 pu*Ohm";
    shunt_impedance "1e+09+1e+09j pu*Ohm";
    core_coil_weight "0 lb";
    tank_fittings_weight "0 lb";
    oil_volume "0 gal";
    rated_winding_time_constant "0 h";
    rated_winding_hot_spot_rise "0 degC";
    rated_top_oil_rise "0 degC";
    no_load_loss "0 pu";
    full_load_loss "0 pu";
    reactance_resistance_ratio "4.5";
    installed_insulation_life "0 h";
    magnetization_location "NONE";
    inrush_saturation_enabled "FALSE";
    L_A "0.2 pu";
    phi_K "1.17 pu";
    phi_M "1 pu";
    I_M "0.01 pu";
    T_D "0.5";
}
object transformer_configuration
{
    name "SINGLE_PHASE_CENTER_TAPPED-PADMOUNT-7200V-120V-25kVA";
    connect_type "SINGLE_PHASE_CENTER_TAPPED";
    install_type "PADMOUNT";
    coolant_type "UNKNOWN";
    cooling_type "UNKNOWN";
    primary_voltage "7200 V";
    secondary_voltage "120 V";
    power_rating "25 kVA";
    powerA_rating "25 kVA";
    powerB_rating "0 kVA";
    powerC_rating "0 kVA";
    powerN_rating "0 kVA";
    resistance "0.006 pu*Ohm";
    reactance "0.004 pu*Ohm";
    impedance "0.006+0.004j pu*Ohm";
    resistance1 "0 pu*Ohm";
    reactance1 "0 pu*Ohm";
    impedance1 "0+0j pu*Ohm";
    resistance2 "0 pu*Ohm";
    reactance2 "0 pu*Ohm";
    impedance2 "0+0j pu*Ohm";
    shunt_resistance "339.61 pu*Ohm";
    shunt_reactance "333.349 pu*Ohm";
    shunt_impedance "339.61+333.349j pu*Ohm";
    core_coil_weight "0 lb";
    tank_fittings_weight "0 lb";
    oil_volume "0 gal";
    rated_winding_time_constant "0 h";
    rated_winding_hot_spot_rise "0 degC";
    rated_top_oil_rise "0 degC";
    no_load_loss "0 pu";
    full_load_loss "0 pu";
    reactance_resistance_ratio "4.5";
    installed_insulation_life "0 h";
    magnetization_location "NONE";
    inrush_saturation_enabled "FALSE";
    L_A "0.2 pu";
    phi_K "1.17 pu";
    phi_M "1 pu";
    I_M "0.01 pu";
    T_D "0.5";
}
object transformer_configuration
{
    name "SINGLE_PHASE_CENTER_TAPPED-POLETOP-7200V-120V-25kVA";
    connect_type "SINGLE_PHASE_CENTER_TAPPED";
    install_type "POLETOP";
    coolant_type "UNKNOWN";
    cooling_type "UNKNOWN";
    primary_voltage "7200 V";
    secondary_voltage "120 V";
    power_rating "25 kVA";
    powerA_rating "25 kVA";
    powerB_rating "0 kVA";
    powerC_rating "0 kVA";
    powerN_rating "0 kVA";
    resistance "0.006 pu*Ohm";
    reactance "0.004 pu*Ohm";
    impedance "0.006+0.004j pu*Ohm";
    resistance1 "0 pu*Ohm";
    reactance1 "0 pu*Ohm";
    impedance1 "0+0j pu*Ohm";
    resistance2 "0 pu*Ohm";
    reactance2 "0 pu*Ohm";
    impedance2 "0+0j pu*Ohm";
    shunt_resistance "339.61 pu*Ohm";
    shunt_reactance "353.262 pu*Ohm";
    shunt_impedance "339.61+353.262j pu*Ohm";
    core_coil_weight "0 lb";
    tank_fittings_weight "0 lb";
    oil_volume "0 gal";
    rated_winding_time_constant "0 h";
    rated_winding_hot_spot_rise "0 degC";
    rated_top_oil_rise "0 degC";
    no_load_loss "0 pu";
    full_load_loss "0 pu";
    reactance_resistance_ratio "4.5";
    installed_insulation_life "0 h";
    magnetization_location "NONE";
    inrush_saturation_enabled "FALSE";
    L_A "0.2 pu";
    phi_K "1.17 pu";
    phi_M "1 pu";
    I_M "0.01 pu";
    T_D "0.5";
}
object transformer_configuration
{
    name "SINGLE_PHASE_CENTER_TAPPED-PADMOUNT-7200V-120V-15kVA";
    connect_type "SINGLE_PHASE_CENTER_TAPPED";
    install_type "PADMOUNT";
    coolant_type "UNKNOWN";
    cooling_type "UNKNOWN";
    primary_voltage "7200 V";
    secondary_voltage "120 V";
    power_rating "15 kVA";
    powerA_rating "15 kVA";
    powerB_rating "0 kVA";
    powerC_rating "0 kVA";
    powerN_rating "0 kVA";
    resistance "0.01 pu*Ohm";
    reactance "0.00667 pu*Ohm";
    impedance "0.01+0.00667j pu*Ohm";
    resistance1 "0 pu*Ohm";
    reactance1 "0 pu*Ohm";
    impedance1 "0+0j pu*Ohm";
    resistance2 "0 pu*Ohm";
    reactance2 "0 pu*Ohm";
    impedance2 "0+0j pu*Ohm";
    shunt_resistance "318.75 pu*Ohm";
    shunt_reactance "335.938 pu*Ohm";
    shunt_impedance "318.75+335.938j pu*Ohm";
    core_coil_weight "0 lb";
    tank_fittings_weight "0 lb";
    oil_volume "0 gal";
    rated_winding_time_constant "0 h";
    rated_winding_hot_spot_rise "0 degC";
    rated_top_oil_rise "0 degC";
    no_load_loss "0 pu";
    full_load_loss "0 pu";
    reactance_resistance_ratio "4.5";
    installed_insulation_life "0 h";
    magnetization_location "NONE";
    inrush_saturation_enabled "FALSE";
    L_A "0.2 pu";
    phi_K "1.17 pu";
    phi_M "1 pu";
    I_M "0.01 pu";
    T_D "0.5";
}
object transformer_configuration
{
    name "SINGLE_PHASE_CENTER_TAPPED-POLETOP-7200V-120V-37.5kVA";
    connect_type "SINGLE_PHASE_CENTER_TAPPED";
    install_type "POLETOP";
    coolant_type "UNKNOWN";
    cooling_type "UNKNOWN";
    primary_voltage "7200 V";
    secondary_voltage "120 V";
    power_rating "37.5 kVA";
    powerA_rating "37.5 kVA";
    powerB_rating "0 kVA";
    powerC_rating "0 kVA";
    powerN_rating "0 kVA";
    resistance "0.004 pu*Ohm";
    reactance "0.00267 pu*Ohm";
    impedance "0.004+0.00267j pu*Ohm";
    resistance1 "0 pu*Ohm";
    reactance1 "0 pu*Ohm";
    impedance1 "0+0j pu*Ohm";
    resistance2 "0 pu*Ohm";
    reactance2 "0 pu*Ohm";
    impedance2 "0+0j pu*Ohm";
    shunt_resistance "365.685 pu*Ohm";
    shunt_reactance "338.859 pu*Ohm";
    shunt_impedance "365.685+338.859j pu*Ohm";
    core_coil_weight "0 lb";
    tank_fittings_weight "0 lb";
    oil_volume "0 gal";
    rated_winding_time_constant "0 h";
    rated_winding_hot_spot_rise "0 degC";
    rated_top_oil_rise "0 degC";
    no_load_loss "0 pu";
    full_load_loss "0 pu";
    reactance_resistance_ratio "4.5";
    installed_insulation_life "0 h";
    magnetization_location "NONE";
    inrush_saturation_enabled "FALSE";
    L_A "0.2 pu";
    phi_K "1.17 pu";
    phi_M "1 pu";
    I_M "0.01 pu";
    T_D "0.5";
}
object transformer_configuration
{
    name "SINGLE_PHASE_CENTER_TAPPED-POLETOP-7200V-120V-15kVA";
    connect_type "SINGLE_PHASE_CENTER_TAPPED";
    install_type "POLETOP";
    coolant_type "UNKNOWN";
    cooling_type "UNKNOWN";
    primary_voltage "7200 V";
    secondary_voltage "120 V";
    power_rating "15 kVA";
    powerA_rating "15 kVA";
    powerB_rating "0 kVA";
    powerC_rating "0 kVA";
    powerN_rating "0 kVA";
    resistance "0.01 pu*Ohm";
    reactance "0.00667 pu*Ohm";
    impedance "0.01+0.00667j pu*Ohm";
    resistance1 "0 pu*Ohm";
    reactance1 "0 pu*Ohm";
    impedance1 "0+0j pu*Ohm";
    resistance2 "0 pu*Ohm";
    reactance2 "0 pu*Ohm";
    impedance2 "0+0j pu*Ohm";
    shunt_resistance "318.75 pu*Ohm";
    shunt_reactance "310.196 pu*Ohm";
    shunt_impedance "318.75+310.196j pu*Ohm";
    core_coil_weight "0 lb";
    tank_fittings_weight "0 lb";
    oil_volume "0 gal";
    rated_winding_time_constant "0 h";
    rated_winding_hot_spot_rise "0 degC";
    rated_top_oil_rise "0 degC";
    no_load_loss "0 pu";
    full_load_loss "0 pu";
    reactance_resistance_ratio "4.5";
    installed_insulation_life "0 h";
    magnetization_location "NONE";
    inrush_saturation_enabled "FALSE";
    L_A "0.2 pu";
    phi_K "1.17 pu";
    phi_M "1 pu";
    I_M "0.01 pu";
    T_D "0.5";
}
object transformer_configuration
{
    name "SINGLE_PHASE_CENTER_TAPPED-POLETOP-7200V-120V-10kVA";
    connect_type "SINGLE_PHASE_CENTER_TAPPED";
    install_type "POLETOP";
    coolant_type "UNKNOWN";
    cooling_type "UNKNOWN";
    primary_voltage "7200 V";
    secondary_voltage "120 V";
    power_rating "10 kVA";
    powerA_rating "10 kVA";
    powerB_rating "0 kVA";
    powerC_rating "0 kVA";
    powerN_rating "0 kVA";
    resistance "0.015 pu*Ohm";
    reactance "0.01 pu*Ohm";
    impedance "0.015+0.01j pu*Ohm";
    resistance1 "0 pu*Ohm";
    reactance1 "0 pu*Ohm";
    impedance1 "0+0j pu*Ohm";
    resistance2 "0 pu*Ohm";
    reactance2 "0 pu*Ohm";
    impedance2 "0+0j pu*Ohm";
    shunt_resistance "308.32 pu*Ohm";
    shunt_reactance "335.162 pu*Ohm";
    shunt_impedance "308.32+335.162j pu*Ohm";
    core_coil_weight "0 lb";
    tank_fittings_weight "0 lb";
    oil_volume "0 gal";
    rated_winding_time_constant "0 h";
    rated_winding_hot_spot_rise "0 degC";
    rated_top_oil_rise "0 degC";
    no_load_loss "0 pu";
    full_load_loss "0 pu";
    reactance_resistance_ratio "4.5";
    installed_insulation_life "0 h";
    magnetization_location "NONE";
    inrush_saturation_enabled "FALSE";
    L_A "0.2 pu";
    phi_K "1.17 pu";
    phi_M "1 pu";
    I_M "0.01 pu";
    T_D "0.5";
}
object transformer_configuration
{
    name "SINGLE_PHASE_CENTER_TAPPED-PADMOUNT-7200V-120V-37.5kVA";
    connect_type "SINGLE_PHASE_CENTER_TAPPED";
    install_type "PADMOUNT";
    coolant_type "UNKNOWN";
    cooling_type "UNKNOWN";
    primary_voltage "7200 V";
    secondary_voltage "120 V";
    power_rating "37.5 kVA";
    powerA_rating "37.5 kVA";
    powerB_rating "0 kVA";
    powerC_rating "0 kVA";
    powerN_rating "0 kVA";
    resistance "0.004 pu*Ohm";
    reactance "0.00267 pu*Ohm";
    impedance "0.004+0.00267j pu*Ohm";
    resistance1 "0 pu*Ohm";
    reactance1 "0 pu*Ohm";
    impedance1 "0+0j pu*Ohm";
    resistance2 "0 pu*Ohm";
    reactance2 "0 pu*Ohm";
    impedance2 "0+0j pu*Ohm";
    shunt_resistance "365.685 pu*Ohm";
    shunt_reactance "377.78 pu*Ohm";
    shunt_impedance "365.685+377.78j pu*Ohm";
    core_coil_weight "0 lb";
    tank_fittings_weight "0 lb";
    oil_volume "0 gal";
    rated_winding_time_constant "0 h";
    rated_winding_hot_spot_rise "0 degC";
    rated_top_oil_rise "0 degC";
    no_load_loss "0 pu";
    full_load_loss "0 pu";
    reactance_resistance_ratio "4.5";
    installed_insulation_life "0 h";
    magnetization_location "NONE";
    inrush_saturation_enabled "FALSE";
    L_A "0.2 pu";
    phi_K "1.17 pu";
    phi_M "1 pu";
    I_M "0.01 pu";
    T_D "0.5";
}
object transformer_configuration
{
    name "SINGLE_PHASE_CENTER_TAPPED-PADMOUNT-7200V-120V-50kVA";
    connect_type "SINGLE_PHASE_CENTER_TAPPED";
    install_type "PADMOUNT";
    coolant_type "UNKNOWN";
    cooling_type "UNKNOWN";
    primary_voltage "7200 V";
    secondary_voltage "120 V";
    power_rating "50 kVA";
    powerA_rating "50 kVA";
    powerB_rating "0 kVA";
    powerC_rating "0 kVA";
    powerN_rating "0 kVA";
    resistance "0.003 pu*Ohm";
    reactance "0.002 pu*Ohm";
    impedance "0.003+0.002j pu*Ohm";
    resistance1 "0 pu*Ohm";
    reactance1 "0 pu*Ohm";
    impedance1 "0+0j pu*Ohm";
    resistance2 "0 pu*Ohm";
    reactance2 "0 pu*Ohm";
    impedance2 "0+0j pu*Ohm";
    shunt_resistance "391.76 pu*Ohm";
    shunt_reactance "338.955 pu*Ohm";
    shunt_impedance "391.76+338.955j pu*Ohm";
    core_coil_weight "0 lb";
    tank_fittings_weight "0 lb";
    oil_volume "0 gal";
    rated_winding_time_constant "0 h";
    rated_winding_hot_spot_rise "0 degC";
    rated_top_oil_rise "0 degC";
    no_load_loss "0 pu";
    full_load_loss "0 pu";
    reactance_resistance_ratio "4.5";
    installed_insulation_life "0 h";
    magnetization_location "NONE";
    inrush_saturation_enabled "FALSE";
    L_A "0.2 pu";
    phi_K "1.17 pu";
    phi_M "1 pu";
    I_M "0.01 pu";
    T_D "0.5";
}
object transformer_configuration
{
    name "SINGLE_PHASE_CENTER_TAPPED-POLETOP-7200V-120V-50kVA";
    connect_type "SINGLE_PHASE_CENTER_TAPPED";
    install_type "POLETOP";
    coolant_type "UNKNOWN";
    cooling_type "UNKNOWN";
    primary_voltage "7200 V";
    secondary_voltage "120 V";
    power_rating "50 kVA";
    powerA_rating "50 kVA";
    powerB_rating "0 kVA";
    powerC_rating "0 kVA";
    powerN_rating "0 kVA";
    resistance "0.003 pu*Ohm";
    reactance "0.002 pu*Ohm";
    impedance "0.003+0.002j pu*Ohm";
    resistance1 "0 pu*Ohm";
    reactance1 "0 pu*Ohm";
    impedance1 "0+0j pu*Ohm";
    resistance2 "0 pu*Ohm";
    reactance2 "0 pu*Ohm";
    impedance2 "0+0j pu*Ohm";
    shunt_resistance "391.76 pu*Ohm";
    shunt_reactance "452.399 pu*Ohm";
    shunt_impedance "391.76+452.399j pu*Ohm";
    core_coil_weight "0 lb";
    tank_fittings_weight "0 lb";
    oil_volume "0 gal";
    rated_winding_time_constant "0 h";
    rated_winding_hot_spot_rise "0 degC";
    rated_top_oil_rise "0 degC";
    no_load_loss "0 pu";
    full_load_loss "0 pu";
    reactance_resistance_ratio "4.5";
    installed_insulation_life "0 h";
    magnetization_location "NONE";
    inrush_saturation_enabled "FALSE";
    L_A "0.2 pu";
    phi_K "1.17 pu";
    phi_M "1 pu";
    I_M "0.01 pu";
    T_D "0.5";
}
object transformer_configuration
{
    name "SINGLE_PHASE_CENTER_TAPPED-POLETOP-7200V-120V-175kVA";
    connect_type "SINGLE_PHASE_CENTER_TAPPED";
    install_type "POLETOP";
    coolant_type "UNKNOWN";
    cooling_type "UNKNOWN";
    primary_voltage "7200 V";
    secondary_voltage "120 V";
    power_rating "175 kVA";
    powerA_rating "175 kVA";
    powerB_rating "0 kVA";
    powerC_rating "0 kVA";
    powerN_rating "0 kVA";
    resistance "0.00086 pu*Ohm";
    reactance "0.00057 pu*Ohm";
    impedance "0.00086+0.00057j pu*Ohm";
    resistance1 "0 pu*Ohm";
    reactance1 "0 pu*Ohm";
    impedance1 "0+0j pu*Ohm";
    resistance2 "0 pu*Ohm";
    reactance2 "0 pu*Ohm";
    impedance2 "0+0j pu*Ohm";
    shunt_resistance "652.51 pu*Ohm";
    shunt_reactance "612.274 pu*Ohm";
    shunt_impedance "652.51+612.274j pu*Ohm";
    core_coil_weight "0 lb";
    tank_fittings_weight "0 lb";
    oil_volume "0 gal";
    rated_winding_time_constant "0 h";
    rated_winding_hot_spot_rise "0 degC";
    rated_top_oil_rise "0 degC";
    no_load_loss "0 pu";
    full_load_loss "0 pu";
    reactance_resistance_ratio "4.5";
    installed_insulation_life "0 h";
    magnetization_location "NONE";
    inrush_saturation_enabled "FALSE";
    L_A "0.2 pu";
    phi_K "1.17 pu";
    phi_M "1 pu";
    I_M "0.01 pu";
    T_D "0.5";
}
object transformer_configuration
{
    name "SINGLE_PHASE_CENTER_TAPPED-POLETOP-7200V-120V-75kVA";
    connect_type "SINGLE_PHASE_CENTER_TAPPED";
    install_type "POLETOP";
    coolant_type "UNKNOWN";
    cooling_type "UNKNOWN";
    primary_voltage "7200 V";
    secondary_voltage "120 V";
    power_rating "75 kVA";
    powerA_rating "75 kVA";
    powerB_rating "0 kVA";
    powerC_rating "0 kVA";
    powerN_rating "0 kVA";
    resistance "0.002 pu*Ohm";
    reactance "0.00133 pu*Ohm";
    impedance "0.002+0.00133j pu*Ohm";
    resistance1 "0 pu*Ohm";
    reactance1 "0 pu*Ohm";
    impedance1 "0+0j pu*Ohm";
    resistance2 "0 pu*Ohm";
    reactance2 "0 pu*Ohm";
    impedance2 "0+0j pu*Ohm";
    shunt_resistance "443.91 pu*Ohm";
    shunt_reactance "412.9 pu*Ohm";
    shunt_impedance "443.91+412.9j pu*Ohm";
    core_coil_weight "0 lb";
    tank_fittings_weight "0 lb";
    oil_volume "0 gal";
    rated_winding_time_constant "0 h";
    rated_winding_hot_spot_rise "0 degC";
    rated_top_oil_rise "0 degC";
    no_load_loss "0 pu";
    full_load_loss "0 pu";
    reactance_resistance_ratio "4.5";
    installed_insulation_life "0 h";
    magnetization_location "NONE";
    inrush_saturation_enabled "FALSE";
    L_A "0.2 pu";
    phi_K "1.17 pu";
    phi_M "1 pu";
    I_M "0.01 pu";
    T_D "0.5";
}
object transformer_configuration
{
    name "SINGLE_PHASE_CENTER_TAPPED-POLETOP-7200V-120V-100kVA";
    connect_type "SINGLE_PHASE_CENTER_TAPPED";
    install_type "POLETOP";
    coolant_type "UNKNOWN";
    cooling_type "UNKNOWN";
    primary_voltage "7200 V";
    secondary_voltage "120 V";
    power_rating "100 kVA";
    powerA_rating "100 kVA";
    powerB_rating "0 kVA";
    powerC_rating "0 kVA";
    powerN_rating "0 kVA";
    resistance "0.0015 pu*Ohm";
    reactance "0.001 pu*Ohm";
    impedance "0.0015+0.001j pu*Ohm";
    resistance1 "0 pu*Ohm";
    reactance1 "0 pu*Ohm";
    impedance1 "0+0j pu*Ohm";
    resistance2 "0 pu*Ohm";
    reactance2 "0 pu*Ohm";
    impedance2 "0+0j pu*Ohm";
    shunt_resistance "496.06 pu*Ohm";
    shunt_reactance "425.441 pu*Ohm";
    shunt_impedance "496.06+425.441j pu*Ohm";
    core_coil_weight "0 lb";
    tank_fittings_weight "0 lb";
    oil_volume "0 gal";
    rated_winding_time_constant "0 h";
    rated_winding_hot_spot_rise "0 degC";
    rated_top_oil_rise "0 degC";
    no_load_loss "0 pu";
    full_load_loss "0 pu";
    reactance_resistance_ratio "4.5";
    installed_insulation_life "0 h";
    magnetization_location "NONE";
    inrush_saturation_enabled "FALSE";